Circuit: * Z:\home\thorsten\Elektronik\Projekte\the_pico_retro_tape\hardware\ltspice_simulations\c64_tap_pulse_to_audio.asc

Limiting rise time of source v2 to 5e-005
Limiting fall time of source v2 to 5e-005
.OP point found by inspection.

Date: Sun Apr 20 09:09:13 2025
Total elapsed time: 0.299 seconds.

tnom = 27
temp = 27
method = modified trap
totiter = 8556
traniter = 8556
tranpoints = 3270
accept = 2653
rejected = 617
matrix size = 10
fillins = 0
solver = Normal
Matrix Compiler1: 506 bytes object code size  0.3/0.3/[0.3]
Matrix Compiler2: off  [0.3]/0.7/0.3

