Circuit: * Z:\home\thorsten\Elektronik\Projekte\the_pico_retro_tape\hardware\ltspice_simulations\c64_tap_pulse_to_audio.asc

Limiting rise time of source v2 to 5e-005
Limiting fall time of source v2 to 5e-005
.OP point found by inspection.

Date: Thu Apr 24 18:56:29 2025
Total elapsed time: 0.437 seconds.

tnom = 27
temp = 27
method = modified trap
totiter = 9716
traniter = 9716
tranpoints = 3484
accept = 2768
rejected = 716
matrix size = 10
fillins = 0
solver = Normal
Matrix Compiler1:      29 opcodes  0.4/[0.2]/0.3
Matrix Compiler2: 740 bytes object code size  0.3/0.3/[0.3]

