Circuit: * Z:\home\thorsten\Elektronik\Projekte\the_pico_retro_tape\hardware\ltspice_simulations\simulation_sense_signal_control.asc

Limiting rise time of source v1 to 0.0001
Limiting fall time of source v1 to 0.0001
Direct Newton iteration for .op point succeeded.

Date: Sun Apr 20 08:05:10 2025
Total elapsed time: 0.433 seconds.

tnom = 27
temp = 27
method = modified trap
totiter = 7240
traniter = 7234
tranpoints = 2694
accept = 2272
rejected = 422
matrix size = 9
fillins = 0
solver = Normal
Matrix Compiler1: 456 bytes object code size  0.3/0.2/[0.2]
Matrix Compiler2: 667 bytes object code size  0.3/0.3/[0.3]

