Circuit: * Z:\home\thorsten\Elektronik\Projekte\the_pico_retro_tape\hardware\ltspice_simulations\simulation_sense_signal_control.asc

Limiting rise time of source v1 to 0.0001
Limiting fall time of source v1 to 0.0001
Direct Newton iteration for .op point succeeded.

Date: Thu Mar 06 18:08:10 2025
Total elapsed time: 0.412 seconds.

tnom = 27
temp = 27
method = modified trap
totiter = 7240
traniter = 7234
tranpoints = 2694
accept = 2272
rejected = 422
matrix size = 9
fillins = 0
solver = Normal
Matrix Compiler1: 456 bytes object code size  0.4/0.4/[0.3]
Matrix Compiler2: 667 bytes object code size  0.4/0.4/[0.3]

